Test_Systems/Harmonics_Example/Transformer.dss
New "Transformer.tr_3" phases=3 sub=No buses=[pcc.1.2.3, n_4.1.2.3, ] conns=[delta, delta, ] kVs=[13.8, 0.4, ] kVAs=[12500, 12500, ] taps=[1, 1, ] buses=[pcc.1.2.3, n_4.1.2.3, ] conns=[delta, delta, ] kVs=[13.8, 0.4, ] kVAs=[12500, 12500, ] taps=[1, 1, ] wdg=1 %R=0.2 RdcOhms=0.02589984 wdg=2 %R=0.2 RdcOhms=2.176E-005 RdcOhms=2.176E-005
New "Transformer.tr_4" phases=3 sub=No buses=[pcc.1.2.3, n_5.1.2.3, ] conns=[delta, delta, ] kVs=[13.8, 0.4, ] kVAs=[25000, 25000, ] taps=[1, 1, ] buses=[pcc.1.2.3, n_5.1.2.3, ] conns=[delta, delta, ] kVs=[13.8, 0.4, ] kVAs=[25000, 25000, ] taps=[1, 1, ] wdg=1 %R=0.2 RdcOhms=0.01294992 wdg=2 %R=0.2 RdcOhms=1.088E-005 RdcOhms=1.088E-005
New "Transformer.tr_2" phases=3 buses=[pcc.1.2.3, n_3.1.2.3, ] conns=[delta, wye, ] kVs=[13.8, 0.4, ] kVAs=[12500, 12500, ] taps=[1, 1, ] buses=[pcc.1.2.3, n_3.1.2.3, ] conns=[delta, wye, ] kVs=[13.8, 0.4, ] kVAs=[12500, 12500, ] taps=[1, 1, ] wdg=1 %R=0.2 RdcOhms=0.02589984 wdg=2 %R=0.2 RdcOhms=7.253333E-006 RdcOhms=7.253333E-006
New "Transformer.tr_1" phases=3 buses=[sourcebus.1.2.3, n_6.1.2.3, ] conns=[delta, wye, ] kVs=[115, 13.8, ] kVAs=[50000, 50000, ] taps=[1, 1, ] buses=[sourcebus.1.2.3, n_6.1.2.3, ] conns=[delta, wye, ] kVs=[115, 13.8, ] kVAs=[50000, 50000, ] taps=[1, 1, ] wdg=1 %R=0.2 RdcOhms=0.44965 wdg=2 %R=0.2 RdcOhms=0.00215832 RdcOhms=0.00215832
